
Circuit: eece 311 lab 3

Doing analysis at TEMP = 27.000000 and TNOM = 27.000000


No. of Data Rows : 1

Transfer function information:
transfer_function = 7.317073e-01
output_impedance_at_v(2,0) = 7.317073e+00
v1#input_impedance = 3.727273e+01

CPU time since last call: 0.004 seconds.

Total CPU time: 0.004 seconds.

Total DRAM available = 992.695312 MB.
DRAM currently available = 257.875000 MB.
Total ngspice program size = 5.744141 MB.
Resident set size = 661.000 kB.
Shared ngspice pages = 525.000 kB.
Text (code) pages = 1.553711 MB.
Stack = 0 bytes.
Library pages = 3.041016 MB.

