
Circuit: eece 311 lab 3

Doing analysis at TEMP = 27.000000 and TNOM = 27.000000


No. of Data Rows : 1

                                 eece 311 lab 3
                                 DC transfer characteristic  Tue Sep 20 09:55:21  2011
--------------------------------------------------------------------------------
Index   v-sweep         vsc#branch      
--------------------------------------------------------------------------------
0    8.800000e+01    9.466667e+00    

CPU time since last call: 0.004 seconds.

Total CPU time: 0.004 seconds.

Total DRAM available = 992.695312 MB.
DRAM currently available = 256.492188 MB.
Total ngspice program size = 5.745117 MB.
Resident set size = 654.000 kB.
Shared ngspice pages = 517.000 kB.
Text (code) pages = 1.553711 MB.
Stack = 0 bytes.
Library pages = 3.041992 MB.

